 &SALT_PLUME_PARM01
 CriterionType      = 2
 SaltPlumeCriterion = 0.015D0
 SPovershoot        = 1.0D0
 PlumeMethod        = 1
 Npower             = 0
 &

